%nproc=1
#p Freq
external='/mlatom/software/miniconda3/bin/python /mlatom/software/mlatom_xacs/mlatom/interfaces/gaussian_interface.py model_predict_kwargs'

1cec7620-61a1-477a-8074-f9d8979670cf

0 1
C            -1.9348814432867           2.3025817897847          -2.3883952429248
C            -0.5137778025382           2.3018204177715          -2.6668363179886
C             0.0949099730646           1.1689968410234          -3.2079266598906
C            -0.7022725282064          -0.0018599101543          -3.5033497077518
C            -2.0702233352849          -0.0017846048145          -3.2456653796071
C            -2.6981537211074           1.1723026821598          -2.6700844117167
C            -2.1468265965184           3.0297587044677          -1.1509100418404
C            -0.8542830621043           3.4762094867667          -0.6703014950622
C             0.1514953753348           3.0180147372777          -1.6096159029542
C             1.3904282989826           2.5668502124944          -1.1484471841069
C             1.3891973096357           0.7345333838772          -2.7351660440952
C             0.0949929627603          -1.1723382122242          -3.2066764849445
C            -0.5135856687272          -2.3046437402835          -2.6643855608150
C            -1.9346875133752          -2.3052346698327          -2.3859478609847
C            -2.6980505378214          -1.1753171026924          -2.6688341154911
C            -3.7048105417844          -0.7268676555494          -1.7301095155006
C            -3.7048855802580           0.7247597560949          -1.7308901712680
C            -3.9078567641518           1.4217499470572          -0.5420479654674
C            -3.1132005934125           2.5973861408423          -0.2461419470205
C            -0.5803538706316           3.4770630252430           0.6934497538883
C            -1.5863541367033           3.0311357880467           1.6368262205328
C            -2.8271905367301           2.5980840974361           1.1763313134000
C            -3.4454196885607           1.4229288617423           1.7575957127229
C            -4.1143565800756           0.6965627396822           0.6961972939083
C            -4.1143583574130          -0.6961552208444           0.6969443192331
C            -3.9077537647682          -1.4226245289046          -0.5405390788986
C            -3.1129879140105          -2.5978736476927          -0.2433888624479
C            -2.1465715898084          -3.0311179586012          -1.1476966839569
C             1.3892233063784          -0.7372686153744          -2.7343711799657
C             0.7104764059443          -3.0187076107904           1.1747394583424
C             1.6737891152037          -2.5672847594921           0.2703400534141
C             2.4873370886127          -1.4244672575073           0.5637875211522
C             2.2902577948189          -0.7354008944126           1.7360275756891
C             1.2779784643634          -1.1694746953359           2.6726470511971
C            -0.9118630628772          -2.3022561599556           2.6992044923552
C            -1.5860915737792          -3.0294927034406           1.6400212167418
C            -0.5800430287295          -3.4763238110221           0.6971183845046
C            -0.8539835850618          -3.4769470721718          -0.6666231325372
C             0.1517578487126          -3.0196603512238          -1.6064142195778
C             1.3906697468459          -2.5679208164399          -1.1457316972497
C             2.4869946850032           1.4252182357361           0.5623007854128
C             2.2901378917504           0.7374219972335           1.7352777015160
C             1.2778552585940           1.1724211934134           2.6714437505958
C             0.6565036695286           0.0017489783160           3.2533273911864
C            -0.7051656414978           0.0018479600026           3.5427652110498
C            -1.5068604854655          -1.1720655860488           3.2541656688391
C            -2.8269806510071          -2.5970464577535           1.1790841215321
C            -3.4453341717290          -1.4213384586744           1.7591081085219
C            -2.7983177082299          -0.7244205944727           2.7769742933018
C            -2.7983284309159           0.7271390496595           2.7761837276089
C            -1.5069416054580           1.1753975312614           3.2529300137960
C            -0.9120615826427           2.3050665658599           2.6967805842754
C             0.5063604861743           2.3043040849288           2.4043860823185
C             0.7101859662214           3.0200411738683           1.1715641512055
C             1.6734769610426           2.5677000702283           0.2676312802113
C             2.0288680543428          -1.4262152355502          -1.7332317584623
C             2.0287623700839           1.4245905165108          -1.7347360423837
C             0.5065710874968          -2.3016902589004           2.4068001671109
C             3.0062507526039          -0.7964307873367          -0.7374630375503
C             3.0060550799458           0.7959019122748          -0.7381964267685
C             5.4557902105317           0.6710383155336          -0.0718860062779
C             5.4563395327416          -0.6708330202207          -0.0720473637842
C             6.3267233219056           1.5687296430504           0.7698905270010
H             6.8881932007242           2.2750188969343           0.1412927710551
H             5.7267861242701           2.1688132459762           1.4684899806615
H             7.0589045133311           1.0080293775848           1.3546665169966
C             6.3278954747050          -1.5680552847942           0.7696033329241
H             6.8894832769360          -2.2741472290140           0.1408908210555
H             7.0600014018331          -1.0069670351125           1.3541032985264
H             5.7284599634587          -2.1683739193314           1.4684412995797
C             4.4568188035631          -1.3152121033274          -1.0059349654451
H             4.7188109493937          -1.0883934288988          -2.0485164921181
H             4.4479679667558          -2.4035627138649          -0.9298730190955
C             4.4565341318718           1.3148278081565          -1.0064330819678
H             4.4473879456444           2.4032003107880          -0.9308508563419
H             4.7190620131044           1.0875593231654          -2.0487746330311


