%nproc=1
#p Freq
external='/mlatom/software/miniconda3/bin/python /mlatom/software/mlatom_xacs/mlatom/interfaces/gaussian_interface.py model_predict_kwargs'

7759976e-1f1f-4c6b-97f0-479b581a5926

0 1
C            -1.5004156690042           0.0472338909484           0.1150078393905
C            -0.6687232375474           1.3098158112100           0.0425124406324
H            -2.3960757819439           0.1566038407778          -0.5102999636537
H            -1.8673492225516          -0.0847925772450           1.1470378225410
H            -1.2032653124930           2.2571134839270           0.0760939821156
C             0.6687167945106           1.3098188178616          -0.0425125068986
C             1.5004153700006           0.0472409260451          -0.1150074881322
H             1.2032544296118           2.2571190231440          -0.0760945112859
H             2.3960747851428           0.1566153235137           0.5103005684853
H             1.8673502098370          -0.0847837300000          -1.1470371528524
C            -0.7003597214997          -1.1951980034344          -0.3140204758320
C             0.7003656040097          -1.1951951136649           0.3140202082747
H            -0.6055548861279          -1.1976294875830          -1.4080803118798
H            -1.2436142934728          -2.1024607565996          -0.0357427376316
H             0.6055609707626          -1.1976276286946           1.4080802589954
H             1.2436242584162          -2.1024554650375           0.0357419405585


