%nproc=1
#p Freq
external='/mlatom/software/miniconda3/bin/python /mlatom/software/mlatom_xacs/mlatom/interfaces/gaussian_interface.py model_predict_kwargs'

d3608b6a-4c6e-4716-a2d8-500990fcc375

0 1
C            -1.9632573740647           2.2886613999774          -2.3653444005680
C            -0.5541421509178           2.2890456794884          -2.6677070517249
C             0.0354786749019           1.1653971995629          -3.2313016988017
C            -0.7627303405036          -0.0007538940593          -3.5151236100384
C            -2.1200264075637          -0.0007486676893          -3.2247810061723
C            -2.7317194429384           1.1655344099362          -2.6387536466866
C            -2.1544839805128           3.0097004102693          -1.1317466010310
C            -0.8632641900871           3.4552501899157          -0.6716900516318
C             0.1256645786059           3.0088692962874          -1.6211520274776
C             1.3684285373756           2.5777155727543          -1.1777146706231
C             1.3268749468916           0.7208889653264          -2.7722927157208
C             0.0355719964503          -1.1667169235814          -3.2308011626522
C            -0.5539546863903          -2.2901733022673          -2.6667233163826
C            -1.9630691413836          -2.2897775735952          -2.3643601715298
C            -2.7316224336651          -1.1668310198392          -2.6382522629614
C            -3.7205677604739          -0.7212896332677          -1.6891138207975
C            -3.7206281920044           0.7203179290588          -1.6894239436785
C            -3.9047389475664           1.4145479420952          -0.5016402929695
C            -3.1068661811527           2.5809105339979          -0.2175530631496
C            -0.5722592776019           3.4558723363218           0.6852707784193
C            -1.5609960761107           3.0105596238309           1.6347359609166
C            -2.8044365446632           2.5812403053388           1.1918790856624
C            -3.4153352815887           1.4150290527843           1.7787720900131
C            -4.0954650077102           0.6940425677334           0.7321883451177
C            -4.0954109489417          -0.6940060448113           0.7324869805166
C            -3.9046192850217          -1.4150244992234          -0.5010315275722
C            -3.1066528844804          -2.5811995615834          -0.2164418226346
C            -2.1542361331275          -3.0103029362534          -1.1304520521685
C             1.3269301193850          -0.7219025623753          -2.7719835590772
C             0.7193618581999          -3.0091141032793           1.1468553676569
C             1.6706237973990          -2.5774495240902           0.2323325454883
C             2.4680547704940          -1.4122977438206           0.5145779919600
C             2.2867325151038          -0.7212263545892           1.7031083425233
C             1.2978771570682          -1.1654909222732           2.6519619900426
C            -0.8801764027382          -2.2887673831378           2.6824812032144
C            -1.5607482281417          -3.0099238841386           1.6360315712144
C            -0.5719740911085          -3.4555612621866           0.6867571251690
C            -0.8629802168657          -3.4555480818798          -0.6702042688728
C             0.1259097768518          -3.0094916377938          -1.6198586395812
C             1.3686348947487          -2.5780411412867          -1.1766062443195
C             2.4679375490824           1.4127891543117           0.5139748884313
C             2.2866761026863           0.7222196651883           1.7028048883441
C             1.2977786498149           1.1668037717802           2.6514619415241
C             0.6864199074776           0.0007562834055           3.2383134603690
C            -0.6704534114781           0.0007615425523           3.5304020986139
C            -1.4686930024227          -1.1655522350017           3.2470091987241
C            -2.8042267618678          -2.5808994719134           1.1929913286841
C            -3.4152311190435          -1.4144894219167           1.7793845500156
C            -2.7599854577427          -0.7202717180334           2.7870744465525
C            -2.7600423653149           0.7212997079335           2.7867645687277
C            -1.4687883810580           1.1668869987271           3.2465080868023
C            -0.8803666405966           2.2899081936728           2.6814952363001
C             0.5286836581486           2.2905096068623           2.3790236680322
C             0.7191127043633           3.0097306635580           1.1455608724128
C             1.6704127584337           2.5777551304214           0.2312238074576
C             1.9811120643562          -1.4131705057809          -1.7625931151127
C             1.9810111480147           1.4126454929089          -1.7632003021284
C             0.5288757266988          -2.2893794097178           2.3800086263258
C             2.6760755756715          -0.6964082925524          -0.7208600586715
C             2.6760148323413           0.6963828967708          -0.7211506460195
C             5.5971279330117           0.7329482641162          -0.1916172955990
C             5.5969778343009          -0.7329912613786          -0.1917151435996
C             5.9523733567339           1.4291939604897           1.0895120333863
H             5.9113697016286           2.5075688475168           0.9592211281242
H             5.2579844970799           1.1541560658066           1.8822941217684
H             6.9564050520425           1.1594758286391           1.4125363343545
C             5.9519727212978          -1.4294724977413           1.0893561987909
H             5.9102563632958          -2.5078204920630           0.9590724930096
H             6.9562451323096          -1.1604107392206           1.4121950279024
H             5.2579162724534          -1.1539503350693           1.8822509574363
C             5.2333073601632          -1.4583432517325          -1.2539438179320
H             4.9931895446250          -1.0295387838652          -2.2094280227385
H             5.2095018674104          -2.5343293924749          -1.2090540403075
C             5.2334865798330           1.4585175015239          -1.2537091635061
H             5.2098881560665           2.5345019890903          -1.2086660258601
H             4.9931353787458           1.0298938549669          -2.2092186097876


