%nproc=1
#p Freq
external='/mlatom/software/miniconda3/bin/python /mlatom/software/mlatom_xacs/mlatom/interfaces/gaussian_interface.py model_predict_kwargs'

2dc872fa-cae7-49c3-ad4a-d28bcd7e6645

0 1
C             1.3925308332247           1.5692629505001          -0.3579532507774
C             1.8368998813661           0.6153691056352           0.4715737660404
H             0.7983189712304           1.3450777073763          -1.2395767202738
H             1.6063358293984           2.6183026960263          -0.1791831940440
H             2.4161359679874           0.9263264722002           1.3397359057370
C             1.6285858064683          -0.8332839036659           0.3627844616657
C             1.0493044239844          -1.5109437728190          -0.6385659219188
H             2.0040330285875          -1.4092006441600           1.2084710158873
H             0.9462706523362          -2.5902624616980          -0.6009158372599
H             0.6546457760702          -1.0230733347310          -1.5259113199023
C            -2.8278928726764           0.6994436681973          -0.0654706494209
C            -2.6585207634420          -0.5648180840574           0.3109551689244
H            -3.7963929343493           1.1004914578829          -0.3523162458656
H            -1.9960852359953           1.3969714026066          -0.0989837309161
H            -1.6780868309125          -0.9408027102637           0.5942660345845
H            -3.4806190778967          -1.2740103679829           0.3544726449703


