%nproc=1
#p Freq
external='/mlatom/software/miniconda3/bin/python /mlatom/software/mlatom_xacs/mlatom/interfaces/gaussian_interface.py model_predict_kwargs'

2a5a1222-06ac-4218-b556-3f28011f98ad

0 1
C             0.4440537503487          -1.4339594274158           0.4887057996807
C             1.3231892275906          -0.7032016667256          -0.2889942732414
H             0.1283208081842          -1.0578302958949           1.4550054757225
H             0.3874350297081          -2.5147165272289           0.3836818136966
H             1.8748731815471          -1.2130712891825          -1.0774502849870
C             1.3233261200988           0.7029826727890          -0.2889997904086
C             0.4443457651490           1.4339220947034           0.4887034116251
H             1.8751327294232           1.2127450110579          -1.0774388541480
H             0.3879473131932           2.5146926832468           0.3837020017331
H             0.1284680684657           1.0578512363209           1.4549787654747
C            -1.5745597001951          -0.6931030091921          -0.2274650061595
C            -1.5744994541629           0.6933291174686          -0.2275087217487
H            -2.0803844153093          -1.2381162422526           0.5646024980485
H            -1.4684483637129          -1.2369621818887          -1.1591241937623
H            -1.4682751190856           1.2371533054760          -1.1591742555701
H            -2.0802034853880           1.2384356105817           0.5645685153094


