%nproc=1
#p Freq
external='/mlatom/software/miniconda3/bin/python /mlatom/software/mlatom_xacs/mlatom/interfaces/gaussian_interface.py model_predict_kwargs'

97a4dc0e-8953-46ae-99b7-2d00735b9a94

0 1
C             1.1929619437000          -1.5349868814000           0.5875270127000
C             1.5247811568000          -0.8036701582000          -0.4849947835000
H             0.7848108354000          -1.0812259792000           1.4871486939000
H             1.3105065155000          -2.6147773848000           0.5949105216000
H             1.8788884318000          -1.3194993309000          -1.3781204232000
C             1.4359932054000           0.6604486100000          -0.5908205932000
C             1.5688233742000           1.5294728369000           0.4204267112000
H             1.2709949895000           1.0513148387000          -1.5952578152000
H             1.4765086949000           2.6001887682000           0.2629031023000
H             1.7894591957000           1.2014129256000           1.4331551182000
C            -2.7199704350000          -0.5854842663000          -0.1553477173000
C            -2.6367455336000           0.7174209505000           0.1055939038000
H            -3.6773084512000          -1.0959940282000          -0.2346054183000
H            -1.8303589774000          -1.1940013398000          -0.2987061919000
H            -1.6762530918000           1.2212368875000           0.1828536958000
H            -3.5223104120000           1.3321380940000           0.2514115152000


