%nproc=1
#p Freq
external='/mlatom/software/miniconda3/bin/python /mlatom/software/mlatom_xacs/mlatom/interfaces/gaussian_interface.py model_predict_kwargs'

f16c7a25-20e7-44a4-b5b9-01b9e5211719

0 1
C             0.4883890317680          -1.4340787969462           0.5134845242664
C             1.2705246535794          -0.7046373767593          -0.3170477238091
H             0.1597731397969          -1.0473273795204           1.4602559940077
H             0.4222135981539          -2.5041967574101           0.4015747250516
H             1.7633999946712          -1.1960004737359          -1.1456330515800
C             1.2663898284794           0.7112568739565          -0.3167667503701
C             0.4795794656718           1.4357391624056           0.5137725093558
H             1.7564343534299           1.2058364624051          -1.1451138158261
H             0.4076685451900           2.5055650963643           0.4025477246710
H             0.1537430203537           1.0467660686907           1.4606068202816
C            -1.5729266800765          -0.6790478985527          -0.2260568779295
C            -1.5757152298269           0.6716842109912          -0.2259832418654
H            -1.9953379070784          -1.2350250081822           0.5929684045596
H            -1.3988623508814          -1.2288807322445          -1.1342471496828
H            -1.4052364314587           1.2223343344357          -1.1343607004557
H            -2.0012423797472           1.2254313386232           0.5929864110890


