%nproc=1
#p Freq
external='/mlatom/software/miniconda3/bin/python /mlatom/software/mlatom_xacs/mlatom/interfaces/gaussian_interface.py model_predict_kwargs'

3574015e-90ad-415d-90ec-45ec56aa48d6

0 1
C            -2.0809858685338           2.9274693755130          -1.4822117903152
C            -0.7330058622536           2.9071495059362          -2.0160600189241
C            -0.3643240076778           1.9310381788567          -2.9387318713664
C            -1.3265748877976           0.9336484858858          -3.3627437261918
C            -2.6214019702903           0.9526043879577          -2.8497057122018
C            -3.0061133196666           1.9694648378736          -1.8906930506421
C            -2.0043359767372           3.3125621485557          -0.0865784984100
C            -0.6090359457225           3.5305136671297           0.2422115812107
C             0.1758327620662           3.2798772848418          -0.9500212827280
C             1.4189535389437           2.6606431600739          -0.8473943794001
C             0.9304542221094           1.2873989604753          -2.8334361163528
C            -0.6269553524534          -0.3266419985140          -3.5184542063339
C            -1.2488217355333          -1.5185789227465          -3.1547567123073
C            -2.5968729011139          -1.4988105086793          -2.6214040577844
C            -3.2692552980443          -0.2880254598482          -2.4717491192874
C            -4.0550759302794          -0.0377583502564          -1.2793683604382
C            -3.8923807933718           1.3574124078209          -0.9202094305799
C            -3.8188292307971           1.7274465511500           0.4207076692227
C            -2.8559918926591           2.7245795572626           0.8458233783696
C            -0.1207180831717           3.1531896542852           1.4907744237729
C            -1.0069364024530           2.5406566860994           2.4608581440516
C            -2.3473442075401           2.3308199983369           2.1450443452646
C            -2.9954231898709           1.0901881743494           2.5227583423012
C            -3.9050188376474           0.7173472505255           1.4571257824388
C            -4.0614772997603          -0.6231597190710           1.1120549113431
C            -4.1379976032870          -1.0082694806214          -0.2835578398242
C            -3.4385691905511          -2.2685855979970          -0.4396007718728
C            -2.6831779821042          -2.5087957138383          -1.5851209562039
C             0.7676489940133          -0.1088008604407          -3.1920800810934
C             0.4944124893257          -3.3139520428810           0.0984322413460
C             1.3478034401986          -2.7272571916775          -0.8347766609916
C             2.3076308911889          -1.7298850924149          -0.4078420813336
C             2.3780493909499          -1.3590354384115           0.9298930277711
C             1.4962570534494          -1.9716341012349           1.9034159359997
C            -0.7769703226228          -2.9091814242349           2.0278825660533
C            -1.6863063354381          -3.2815759210665           0.9621632824674
C            -0.9002451448051          -3.5316699323528          -0.2302535889899
C            -1.3885464995267          -3.1525904950328          -1.4783565794567
C            -0.5021317688500          -2.5402102350841          -2.4478996499060
C             0.8391238669328          -2.3319324149002          -2.1338011351804
C             2.6241077749133           1.0069508948525           0.2946505011466
C             2.5355105239357           0.0373779155227           1.2869194430721
C             1.7564800881307           0.2874586757549           2.4819639345461
C             1.1118771829683          -0.9539496882205           2.8612282193879
C            -0.1835022308017          -0.9344482468498           3.3734795685270
C            -1.1463041322417          -1.9314247000523           2.9488508836234
C            -2.9299629027912          -2.6625332028074           0.8596395759586
C            -3.3148092887697          -1.6455390697738           1.8185770163520
C            -2.4408038489141          -1.2873050929663           2.8423940078445
C            -2.2778798773456           0.1078497690415           3.2014467580277
C            -0.8826265528730           0.3260150802862           3.5296349911732
C            -0.2605575658538           1.5187970506687           3.1675241268619
C             1.0872161213948           1.4994550386095           2.6345586984500
C             1.1737165539914           2.5091437915213           1.5969747662062
C             1.9259404544961           2.2662072179791           0.4506578286269
C             1.4857702140686          -1.0918610891813          -2.5121427160466
C             1.8016565948934           1.6444448195932          -1.8079214665688
C             0.5707481569459          -2.9297313828713           1.4941609281879
C             2.3925436132258          -0.7167529473557          -1.4456122277257
C             2.5435667587923           0.6208252437453          -1.1021320037862
C             5.8934387993987           0.7593278202773          -0.1878493808089
C             5.9098486060664          -0.7452231891566          -0.1806775287041
C             6.1708023726210           1.4747381613907           1.1147801003216
H             6.1493773994502           2.5609739312404           0.9863827545439
H             5.4195864443490           1.2152431541060           1.8721386552309
H             7.1523297091693           1.2124060255469           1.5273920837451
C             6.2000430006187          -1.4452443875583           1.1272813360308
H             6.1846623912298          -2.5321993668725           0.9994750269708
H             7.1845805387592          -1.1808813605472           1.5373544297810
H             5.4562309373911          -1.1965049726740           1.8985323247932
C             5.6334413184446          -1.5062040903859          -1.2575838080870
H             5.4071021771061          -1.0920031063496          -2.2338140607791
H             5.6516747357669          -2.5891789102694          -1.1889911255310
C             5.5988095283665           1.4909385281460          -1.2748116979848
H             5.5648944158971           2.5760042349970          -1.2296026578618
H             5.3830768170670           1.0443066198115          -2.2388462796654


