%nproc=1
#p Freq
external='/mlatom/software/miniconda3/bin/python /mlatom/software/mlatom_xacs/mlatom/interfaces/gaussian_interface.py model_predict_kwargs'

42d5ff51-63dd-4440-98ad-d579b99a07d5

0 1
C            -1.4839223277587           0.0421971364609           0.1170079862985
C            -0.6590051415703           1.2909859646654           0.0528556231337
H            -2.3764843623737           0.1611560433114          -0.5029464802603
H            -1.8271269505425          -0.1018822449133           1.1475372630275
H            -1.2048878263241           2.2232608950215           0.1085745761848
C             0.6590048511282           1.2909860722111          -0.0528558834175
C             1.4839224360178           0.0421974545774          -0.1170073071779
H             1.2048873148960           2.2232611001549          -0.1085754808408
H             2.3764836626242           0.1611566397914           0.5029482798312
H             1.8271284385089          -0.1018816176864          -1.1475361730791
C            -0.6836074591922          -1.1755598059429          -0.3374760080786
C             0.6836075619483          -1.1755599876084           0.3374755319075
H            -0.5480583582319          -1.1367649208879          -1.4205049799006
H            -1.2276370040838          -2.0915104570450          -0.0980099558097
H             0.5480583323826          -1.1367660634715           1.4205045283670
H             1.2276372297033          -2.0915103804546           0.0980087664849


