%nproc=1
#p Freq
external='/mlatom/software/miniconda3/bin/python /mlatom/software/mlatom_xacs/mlatom/interfaces/gaussian_interface.py model_predict_kwargs'

f629342b-c50c-4870-8d01-665313b57ea1

0 1
C            -1.5054706273184           3.4536925342973           0.3883601575021
C            -0.2446206189304           3.4929119063950          -0.3264261928839
C            -0.1848447992480           3.0777790174503          -1.6543352960528
C            -1.3827645360866           2.6067347166790          -2.3219461539475
C            -2.5933285020717           2.5695033705705          -1.6353511015668
C            -2.6559459355404           3.0016932168393          -0.2527181163117
C            -1.2331450144361           3.0549418880943           1.7555022076252
C             0.1961669444356           2.8478385861590           1.8858568177387
C             0.8079866830229           3.1180666216482           0.5989942558309
C             1.8791093788034           2.3434881943309           0.1610098396227
C             0.9291123447749           2.2697390007974          -2.1107627542039
C            -1.0090035658463           1.5082492621898          -3.1918876115989
C            -1.8603668711873           0.4165554363510          -3.3406901158283
C            -3.1211579635020           0.3781952277119          -2.6255770403941
C            -3.4802041117517           1.4327384778597          -1.7903322865326
C            -4.0911821447552           1.1625457612090          -0.5034197541181
C            -3.5817789185736           2.1322231091230           0.4468211196574
C            -3.3203891944999           1.7493889038402           1.7596236923466
C            -2.1223167341966           2.2201267276302           2.4271659672624
C             0.6791629541119           1.8133776125409           2.6831298540406
C            -0.2470621204787           0.9434483633708           3.3820740218295
C            -1.6192135511617           1.1427502274680           3.2568553645992
C            -2.5061045367937           0.0060525866920           3.1019474836901
C            -3.5576001305371           0.3809973680428           2.1766430792873
C            -4.0466630875419          -0.5500956910289           1.2642652107352
C            -4.3189093768244          -0.1513723200254          -0.1030198377904
C            -3.9449391952671          -1.2495947139496          -0.9728799786314
C            -3.3581664128957          -0.9901736956178          -2.2085273070422
C             0.4195329297728           1.2999607467121          -3.0620060646851
C            -0.3307687497266          -3.0400079355432          -1.7394657891802
C             0.5589974772747          -2.2052814637291          -2.4109035585453
C             1.7570086681493          -1.7355778618396          -1.7447752365681
C             2.0158279781679          -2.1157353839971          -0.4307299022737
C             1.0915899681996          -2.9865003272413           0.2682869485893
C            -1.3198180631175          -3.4770083258040           0.3428311389515
C            -2.3712411650574          -3.1019816690793          -0.5824140927852
C            -1.7600327263669          -2.8316681450512          -1.8691877909091
C            -2.2436872818631          -1.7973399923080          -2.6656900497787
C            -1.3179699801400          -0.9280140876227          -3.3653712703499
C             0.0543516007552          -1.1280132583655          -3.2404185680946
C             2.7418748846310           0.1670620966319           0.1200141714563
C             2.5174719521571          -1.1441392069968           0.5174074168446
C             1.9121060248319          -1.4159607274112           1.8037453261887
C             1.0277152493534          -2.5538050920192           1.6508468742131
C            -0.1824022075804          -2.5906783235321           2.3376610928050
C            -1.3804566468818          -3.0619610009259           1.6703796790805
C            -3.4414660368877          -2.3270146926117          -0.1433151096788
C            -3.5044596291075          -1.8947377624422           1.2392996517382
C            -2.4947930956625          -2.2547974779084           2.1277568546693
C            -1.9854953535294          -1.2850244929629           3.0778988607588
C            -0.5565112924859          -1.4928578779702           3.2078407207167
C             0.2950012753395          -0.4012744056372           3.3566874171663
C             1.5555614359692          -0.3624746278806           2.6426909803670
C             1.7935613824210           1.0066722703079           2.2261383618948
C             2.3799748209901           1.2659579864159           0.9902138621551
C             0.9402037092041           0.0081300300066          -3.0864264863404
C             1.9342676110081           1.9071038313938          -1.2192979692866
C            -0.0586985573666          -3.4385835420022          -0.3723978994051
C             1.9906437087500          -0.3673279192839          -2.1614102209007
C             2.4670874403507           0.5621932989705          -1.2443444877576
C             6.3095164980165           0.6802841850725          -0.0626932327468
C             5.8418516908321          -0.7142736489171          -0.2867520977590
C             7.5046602757551           0.8872314473035           0.8503656464531
H             7.8570881631233           1.9206128345140           0.8011184423676
H             7.2613252447506           0.6825674615224           1.8972883618240
H             8.3419106906580           0.2300099519416           0.5857632929390
C             5.7474702414350          -1.6297343063942           0.9206869729503
H             5.1843328738030          -2.5303060634501           0.6583964987823
H             6.7424993611249          -1.9577420244362           1.2470622355244
H             5.2660113314777          -1.1485425466257           1.7835833292360
C             5.5396265996071          -1.1833180771900          -1.5018589778205
H             5.6557045193842          -0.5891795521032          -2.3978466811766
H             5.1951264590109          -2.2040494932045          -1.6382496939193
C             5.6676510832945           1.7151839283002          -0.6160463329526
H             5.9404666143226           2.7527104881652          -0.4475347768167
H             4.8228502851606           1.5449796329852          -1.2633151930307


