%nproc=1
#p Freq
external='/mlatom/software/miniconda3/bin/python /mlatom/software/mlatom_xacs/mlatom/interfaces/gaussian_interface.py model_predict_kwargs'

e3c394ac-d43d-4b20-ab1f-90bc8eaff70c

0 1
C             0.4422149429735          -1.4351487352815           0.4878091476611
C             1.3238986545856          -0.7040738671733          -0.2862057222919
H             0.1115143028885          -1.0609195251372           1.4492351218208
H             0.3842851546698          -2.5148509663980           0.3788751115963
H             1.8772753979546          -1.2142162074539          -1.0741797042025
C             1.3239709062507           0.7039465731820          -0.2862140172738
C             0.4423786987982           1.4351282086097           0.4878019084904
H             1.8773947904380           1.2140202436705          -1.0741996779011
H             0.3845624126201           2.5148339291297           0.3788438083232
H             0.1116523059454           1.0609642848407           1.4492453749859
C            -1.5730314554900          -0.6931163557621          -0.2291047325075
C            -1.5729790675986           0.6932443829746          -0.2291072368196
H            -2.0623328230544          -1.2377561585128           0.5742670465361
H            -1.4704662630499          -1.2352596603459          -1.1631095309686
H            -1.4703631168641           1.2353762624567          -1.1631133272865
H            -2.0622382386622           1.2379265584591           0.5742596935457


