%nproc=1
#p Freq
external='/mlatom/software/miniconda3/bin/python /mlatom/software/mlatom_xacs/mlatom/interfaces/gaussian_interface.py model_predict_kwargs'

7851eb62-2bb3-4c30-ba17-677380bbc5d3

0 1
C             0.9556589927832           1.4875414300493          -0.6245637148053
C             1.4962030838335           0.8247158694447           0.3912395323985
H             0.4429130413417           0.9858609061611          -1.4274392312462
H             0.9932840015206           2.5620821021625          -0.6819248025555
H             1.9706053835484           1.3776524909017           1.1928774273562
C             1.4943180335986          -0.6207162071954           0.5572441913541
C             1.2997194291217          -1.5100086097814          -0.4097519791415
H             1.6875104432024          -0.9679822383717           1.5648547852682
H             1.3123402413103          -2.5690284596343          -0.2149841518032
H             1.1343670468049          -1.2155197574991          -1.4323671731664
C            -2.5140523163289           0.5518167099849           0.2669740508340
C            -2.3637686173017          -0.7097934042615          -0.0777452064784
H            -3.4789851587241           1.0325898315133           0.2723597957865
H            -1.6755469601944           1.1629827804655           0.5585138599150
H            -1.3961127137173          -1.1847988063923          -0.0807741246315
H            -3.1988469593314          -1.3251735787467          -0.3714976298936


