%nproc=1
#p Freq
external='/mlatom/software/miniconda3/bin/python /mlatom/software/mlatom_xacs/mlatom/interfaces/gaussian_interface.py model_predict_kwargs'

57eb4d3d-6c7e-4496-a83e-d90a40b8c152

0 1
C            -1.9298436603401           2.3000160688964          -2.3911548156773
C            -0.5084822123048           2.3019055901485          -2.6710746281003
C             0.1048841225062           1.1722209286676          -3.2127965371571
C            -0.6921171711197           0.0000008843472          -3.5106457445308
C            -2.0613927968327           0.0000006722688          -3.2519662275540
C            -2.6927962270116           1.1717476443279          -2.6768808422428
C            -2.1433951385327           3.0258513302445          -1.1537021968053
C            -0.8512492416097           3.4720504065096          -0.6697314148490
C             0.1534211922819           3.0175639941314          -1.6112422135783
C             1.3880421376456           2.5620301577539          -1.1423970465524
C             1.3957512620031           0.7376102218663          -2.7316043113200
C             0.1048840133830          -1.1722191155561          -3.2127965204822
C            -0.5084820580602          -2.3019042109651          -2.6710749601897
C            -1.9298433233474          -2.3000152155569          -2.3911555712371
C            -2.6927958757961          -1.1717467594965          -2.6768814108707
C            -3.7038356583126          -0.7244883807034          -1.7391848074104
C            -3.7038355113601           0.7244887687183          -1.7391842032339
C            -3.9094936994653           1.4209691757275          -0.5499736948550
C            -3.1132777599241           2.5949073379644          -0.2510038481736
C            -0.5811792061237           3.4728672546153           0.6958611410231
C            -1.5905969735889           3.0260558792233           1.6362435564549
C            -2.8312820190230           2.5948930514672           1.1717250200341
C            -3.4531714790803           1.4209339646802           1.7518533991495
C            -4.1205938353856           0.6963379543900           0.6880271786216
C            -4.1205940251930          -0.6963383394977           0.6880266453364
C            -3.9094936022014          -1.4209690318633          -0.5499745290346
C            -3.1132772660959          -2.5949070618911          -0.2510050563185
C            -2.1433947061870          -3.0258508466607          -1.1537035926292
C             1.3957514182470          -0.7376088411144          -2.7316048106818
C             0.7064442693098          -3.0174852683499           1.1824291751935
C             1.6679925835822          -2.5610305676638           0.2786287971519
C             2.4795339248879          -1.4176610250941           0.5727152921824
C             2.2871045011132          -0.7383501439062           1.7479799713333
C             1.2742821164862          -1.1717778111676           2.6823769132094
C            -0.9204514392033          -2.2995081295514           2.6980280963240
C            -1.5905967496347          -3.0260567358093           1.6362421324009
C            -0.5811786990582          -3.4728678794831           0.6958595177831
C            -0.8512488235629          -3.4720503056617          -0.6697328808519
C             0.1534215065031          -3.0175633349533          -1.6112435655753
C             1.3880423994417          -2.5620294563469          -1.1423983019274
C             2.4795336145069           1.4176605481149           0.5727158212300
C             2.2871045470543           0.7383493022906           1.7479800458118
C             1.2742820267181           1.1717765038432           2.6823771769942
C             0.6505826040792          -0.0000007457917           3.2617796092832
C            -0.7140085754551          -0.0000008694657           3.5446567201137
C            -1.5170216407956          -1.1716817331012           3.2538048404878
C            -2.8312817448589          -2.5948938977878           1.1717238632644
C            -3.4531712315180          -1.4209346728013           1.7518524567172
C            -2.8093131000710          -0.7244591208168           2.7726413721538
C            -2.8093130484693           0.7244578011690           2.7726416901438
C            -1.5170216151104           1.1716801611845           3.2538055000722
C            -0.9204513805953           2.2995070853921           2.6980291416167
C             0.5000754360469           2.3014915267751           2.4141752656169
C             0.7064439528819           3.0174845576130           1.1824306099585
C             1.6679924842096           2.5610302792178           0.2786299501147
C             2.0295904919401          -1.4209063187387          -1.7240518643197
C             2.0295900164262           1.4209069011246          -1.7240506750521
C             0.5000754547115          -2.3014922715184           2.4141739877153
C             3.0092293624600          -0.7988910001376          -0.7268396346461
C             3.0092290887468           0.7988912272070          -0.7268392498427
C             5.4660328320488           0.6716468731966          -0.0755993085056
C             5.4660328624289          -0.6716464789236          -0.0755992554862
C             6.3488135491599           1.5706499456603           0.7505470941751
H             6.9483563395294           2.2240918633627           0.1033120598414
H             5.7392779303907           2.2317348826469           1.3805993922487
H             7.0327329724734           1.0172352064411           1.4000576232029
C             6.3488138165875          -1.5706494881062           0.7505468736838
H             6.9483565838632          -2.2240904800061           0.1033115318025
H             7.0327320246291          -1.0172349326770           1.4000582832700
H             5.7392781091854          -2.2317356135100           1.3805984828301
C             4.4597119955780          -1.3330743461811          -0.9892905085859
H             4.7051473926977          -1.1440359576198          -2.0427634734263
H             4.4557261238530          -2.4191023115967          -0.8557089059618
C             4.4597117647377           1.3330750180854          -0.9892901429900
H             4.4557256781958           2.4191031201673          -0.8557088031104
H             4.7051477302831           1.1440365498379          -2.0427630952186


